*HEADING
Acrylic Pan graded C3D20R modal model
*NODE
1,0.00000000,0.00000000,-1.50000000
2,25.00000000,0.00000000,-1.50000000
3,25.00000000,5.00000000,-1.50000000
4,0.00000000,5.00000000,-1.50000000
5,0.00000000,0.00000000,0.00000000
6,25.00000000,0.00000000,0.00000000
7,25.00000000,5.00000000,0.00000000
8,0.00000000,5.00000000,0.00000000
9,12.50000000,0.00000000,-1.50000000
10,25.00000000,2.50000000,-1.50000000
11,12.50000000,5.00000000,-1.50000000
12,0.00000000,2.50000000,-1.50000000
13,12.50000000,0.00000000,0.00000000
14,25.00000000,2.50000000,0.00000000
15,12.50000000,5.00000000,0.00000000
16,0.00000000,2.50000000,0.00000000
17,0.00000000,0.00000000,-0.75000000
18,25.00000000,0.00000000,-0.75000000
19,25.00000000,5.00000000,-0.75000000
20,0.00000000,5.00000000,-0.75000000
** ... 3337 like lines cut
*ELEMENT,TYPE=C3D20R,ELSET=SOLID
1,1,2,3,4,5,6,7,8,9,10,11,12,13,14,15
16,17,18,19,20
2,2,21,22,3,6,23,24,7,25,26,27,10,28,29,30
14,18,31,32,19
3,21,33,34,22,23,35,36,24,37,38,39,26,40,41,42
29,31,43,44,32
4,33,45,46,34,35,47,48,36,49,50,51,38,52,53,54
41,43,55,56,44
5,45,57,58,46,47,59,60,48,61,62,63,50,64,65,66
53,55,67,68,56
6,57,69,70,58,59,71,72,60,73,74,75,62,76,77,78
65,67,79,80,68
7,69,81,82,70,71,83,84,72,85,86,87,74,88,89,90
77,79,91,92,80
8,81,93,94,82,83,95,96,84,97,98,99,86,100,101,102
89,91,103,104,92
9,93,105,106,94,95,107,108,96,109,110,111,98,112,113,114
101,103,115,116,104
10,105,117,118,106,107,119,120,108,121,122,123,110,124,125,126
113,115,127,128,116
** ... 1100 like lines cut
*NSET,NSET=FIXED
105,106,107,108,110,113,115,116,117,118,119,120,121,122,123,124
125,126,127,128,129,130,131,132,133,134,135,136,137,138,139,140
141,142,143,144,145,146,147,148,149,150,151,152,153,154,155,156
157,158,159,160,161,162,163,164,165,166,167,168,169,170,171,172
173,174,175,176,177,178,179,180,181,182,183,184,185,186,187,188
310,311,312,314,316,317,318,319,320,321,322,323,324,325,326,327
328,329,330,331,332,333,334,335,336,337,338,339,340,341,342,343
344,345,346,347,348,349,350,351,352,353,354,355,356,357,358,455
456,457,459,461,462,463,464,465,466,467,468,469,470,471,472,473
474,475,476,477,478,479,480,481,482,483,484,485,486,487,488,489
490,491,492,493,494,495,496,497,498,499,500,501,502,503,600,601
602,604,606,607,608,609,610,611,612,613,614,615,616,617,618,619
620,621,622,623,624,625,626,627,628,629,630,631,632,633,634,635
636,637,638,639,640,641,642,643,644,645,646,647,648,2195,2196,2198
2200,2201,2202,2203,2204,2205,2206,2207,2208,2209,2210,2211,2212,2213,2214,2215
2216,2217,2218,2219,2220,2221,2222,2223,2224,2225,2226,2227,2228,2229,2230,2231
2232,2233,2234,2235,2236,2237,2238,2239,2240,2241,2242,2243,2314,2315,2317,2318
2319,2320,2321,2322,2323,2324,2325,2326,2327,2328,2329,2330,2331,2332,2333,2334
2335,2336,2337,2338,2339,2340,2341,2397,2398,2400,2401,2402,2403,2404,2405,2406
2407,2408,2409,2410,2411,2412,2413,2414,2415,2416,2417,2418,2419,2420,2421,2422
2423,2424,2480,2481,2483,2484,2485,2486,2487,2488,2489,2490,2491,2492,2493,2494
2495,2496,2497,2498,2499,2500,2501,2502,2503,2504,2505,2506,2507
*NSET,NSET=TOPSURFACE
2134,2135,2136,2137,2138,2139,2140,2141,2146,2147,2148,2149,2150,2153,2154,2155
2156,2157,2160,2161,2162,2163,2164,2167,2168,2169,2170,2171,2174,2175,2176,2177
2178,2181,2182,2183,2184,2185,2188,2189,2190,2191,2192,2195,2196,2197,2198,2199
2202,2203,2204,2205,2206,2209,2210,2211,2212,2213,2216,2217,2218,2219,2220,2223
2224,2225,2226,2227,2230,2231,2232,2233,2234,2237,2238,2239,2240,2241,2244,2245
2246,2247,2248,2251,2252,2253,2254,2255,2258,2259,2260,2261,2262,2265,2266,2267
2268,2269,2272,2273,2274,2275,2276,2279,2280,2281,2282,2283,2286,2287,2288,2290
2291,2292,2294,2295,2296,2298,2299,2300,2302,2303,2304,2306,2307,2308,2310,2311
2312,2314,2315,2316,2318,2319,2320,2322,2323,2324,2326,2327,2328,2330,2331,2332
2334,2335,2336,2338,2339,2340,2342,2343,2344,2346,2347,2348,2350,2351,2352,2354
2355,2356,2358,2359,2360,2362,2363,2364,2365,2366,2369,2370,2371,2373,2374,2375
2377,2378,2379,2381,2382,2383,2385,2386,2387,2389,2390,2391,2393,2394,2395,2397
2398,2399,2401,2402,2403,2405,2406,2407,2409,2410,2411,2413,2414,2415,2417,2418
2419,2421,2422,2423,2425,2426,2427,2429,2430,2431,2433,2434,2435,2437,2438,2439
2441,2442,2443,2445,2446,2447,2448,2449,2452,2453,2454,2456,2457,2458,2460,2461
2462,2464,2465,2466,2468,2469,2470,2472,2473,2474,2476,2477,2478,2480,2481,2482
2484,2485,2486,2488,2489,2490,2492,2493,2494,2496,2497,2498,2500,2501,2502,2504
2505,2506,2508,2509,2510,2512,2513,2514,2516,2517,2518,2520,2521,2522,2524,2525
2526,2528,2529,2530,2531,2532,2535,2536,2537,2539,2540,2541,2543,2544,2545,2547
2548,2549,2551,2552,2553,2555,2556,2557,2559,2560,2561,2563,2564,2565,2567,2568
** ... 37 like lines cut
*NSET,NSET=OBSERVATION
2618,2634,2658,2682,2895,3116,3132,3156,3180
*NSET,NSET=SENSOR
2895
*NSET,NSET=HIT_C4
2618
*NSET,NSET=HIT_D4
2634
*NSET,NSET=HIT_E4
2658
*NSET,NSET=HIT_G4
2682
*NSET,NSET=HIT_A4
3116
*NSET,NSET=HIT_C5
3132
*NSET,NSET=HIT_D5
3156
*NSET,NSET=HIT_E5
3180
*MATERIAL,NAME=PMMA
*ELASTIC
3200.,0.35
*DENSITY
1.18E-9
*SOLID SECTION,ELSET=SOLID,MATERIAL=PMMA
*BOUNDARY
FIXED,1,3
*AMPLITUDE,NAME=IMPULSE,TIME=TOTAL TIME
0.,0.,0.00015625,6400.,0.0003125,0.,0.320000,0.
*STEP,INC=10000
*MODAL DYNAMIC,DIRECT
0.00015625,0.320000
*MODAL DAMPING,MODAL=DIRECT
1,30,0.012
*CLOAD,AMPLITUDE=IMPULSE
HIT_C4,3,1.0
*NODE PRINT,NSET=SENSOR,GLOBAL=YES,FREQUENCY=1
U
*END STEP
