*HEADING
Acrylic Pan high-frequency C3D20R model
*NODE
1,0.00000000,0.00000000,-1.00000000
2,10.00000000,0.00000000,-1.00000000
3,10.00000000,10.00000000,-1.00000000
4,0.00000000,10.00000000,-1.00000000
5,0.00000000,0.00000000,0.00000000
6,10.00000000,0.00000000,0.00000000
7,10.00000000,10.00000000,0.00000000
8,0.00000000,10.00000000,0.00000000
9,5.00000000,0.00000000,-1.00000000
10,10.00000000,5.00000000,-1.00000000
11,5.00000000,10.00000000,-1.00000000
12,0.00000000,5.00000000,-1.00000000
13,5.00000000,0.00000000,0.00000000
14,10.00000000,5.00000000,0.00000000
15,5.00000000,10.00000000,0.00000000
16,0.00000000,5.00000000,0.00000000
17,0.00000000,0.00000000,-0.50000000
18,10.00000000,0.00000000,-0.50000000
19,10.00000000,10.00000000,-0.50000000
20,0.00000000,10.00000000,-0.50000000
** ... 9265 like lines cut
*ELEMENT,TYPE=C3D20R,ELSET=SOLID
1,1,2,3,4,5,6,7,8,9,10,11,12,13,14,15
16,17,18,19,20
2,2,21,22,3,6,23,24,7,25,26,27,10,28,29,30
14,18,31,32,19
3,21,33,34,22,23,35,36,24,37,38,39,26,40,41,42
29,31,43,44,32
4,33,45,46,34,35,47,48,36,49,50,51,38,52,53,54
41,43,55,56,44
5,45,57,58,46,47,59,60,48,61,62,63,50,64,65,66
53,55,67,68,56
6,57,69,70,58,59,71,72,60,73,74,75,62,76,77,78
65,67,79,80,68
7,69,81,82,70,71,83,84,72,85,86,87,74,88,89,90
77,79,91,92,80
8,81,93,94,82,83,95,96,84,97,98,99,86,100,101,102
89,91,103,104,92
9,93,105,106,94,95,107,108,96,109,110,111,98,112,113,114
101,103,115,116,104
10,105,117,118,106,107,119,120,108,121,122,123,110,124,125,126
113,115,127,128,116
** ... 3180 like lines cut
*NSET,NSET=FIXED
237,238,239,240,242,245,247,248,249,250,251,252,253,254,255,256
257,258,259,260,261,262,263,264,265,266,267,268,269,270,271,272
273,274,275,276,277,278,279,280,281,282,283,284,285,286,287,288
289,290,291,292,293,294,295,296,297,298,299,300,301,302,303,304
305,306,307,308,309,310,311,312,313,314,315,316,317,318,319,320
321,322,323,324,325,326,327,328,329,330,331,332,333,334,335,336
337,338,339,340,341,342,343,344,345,346,347,348,349,350,351,352
353,354,355,356,357,358,359,360,361,362,363,364,365,366,367,368
627,628,629,631,633,634,635,636,637,638,639,640,641,642,643,644
645,646,647,648,649,650,651,652,653,654,655,656,657,658,659,660
661,662,663,664,665,666,667,668,669,670,671,672,673,674,675,676
677,678,679,680,681,682,683,684,685,686,687,688,689,690,691,692
693,694,695,696,697,698,699,700,701,702,703,6042,6043,6045,6047,6048
6049,6050,6051,6052,6053,6054,6055,6056,6057,6058,6059,6060,6061,6062,6063,6064
6065,6066,6067,6068,6069,6070,6071,6072,6073,6074,6075,6076,6077,6078,6079,6080
6081,6082,6083,6084,6085,6086,6087,6088,6089,6090,6091,6092,6093,6094,6095,6096
6097,6098,6099,6100,6101,6102,6103,6104,6105,6106,6107,6108,6109,6110,6111,6112
6113,6114,6115,6116,6117,6118,6268,6269,6271,6272,6273,6274,6275,6276,6277,6278
6279,6280,6281,6282,6283,6284,6285,6286,6287,6288,6289,6290,6291,6292,6293,6294
6295,6296,6297,6298,6299,6300,6301,6302,6303,6304,6305,6306,6307,6308,6309,6310
6311
*NSET,NSET=OBSERVATION
6697,6737,6777,6817,7572,8327,8367,8407,8447
*NSET,NSET=SENSOR
7572
*NSET,NSET=HIT_C4
6697
*NSET,NSET=HIT_D4
6737
*NSET,NSET=HIT_E4
6777
*NSET,NSET=HIT_G4
6817
*NSET,NSET=HIT_A4
8327
*NSET,NSET=HIT_C5
8367
*NSET,NSET=HIT_D5
8407
*NSET,NSET=HIT_E5
8447
*MATERIAL,NAME=PMMA
*ELASTIC
3200.,0.35
*DENSITY
1.18E-9
*SOLID SECTION,ELSET=SOLID,MATERIAL=PMMA
*BOUNDARY
FIXED,1,3
*AMPLITUDE,NAME=IMPULSE,TIME=TOTAL TIME
0.,0.,0.0000390625,25600.0,0.0000781250,0.,0.05000000,0.
*STEP,INC=5000
*MODAL DYNAMIC,DIRECT
0.0000390625,0.05000000
*MODAL DAMPING,MODAL=DIRECT
1,280,0.012
*CLOAD,AMPLITUDE=IMPULSE
HIT_G4,3,1.0
*NODE PRINT,NSET=SENSOR,GLOBAL=YES,FREQUENCY=1
U
*END STEP
